# generated using pymatgen
data_Zn3H16C33N2O16F
_symmetry_space_group_name_H-M   'P 1'
_cell_length_a   18.50326540
_cell_length_b   18.76247148
_cell_length_c   18.89901809
_cell_angle_alpha   110.00503147
_cell_angle_beta   109.23089190
_cell_angle_gamma   108.77324905
_symmetry_Int_Tables_number   1
_chemical_formula_structural   Zn3H16C33N2O16F
_chemical_formula_sum   'Zn6 H32 C66 N4 O32 F2'
_cell_volume   5075.35444919
_cell_formula_units_Z   2
loop_
 _symmetry_equiv_pos_site_id
 _symmetry_equiv_pos_as_xyz
  1  'x, y, z'
loop_
 _atom_site_type_symbol
 _atom_site_label
 _atom_site_symmetry_multiplicity
 _atom_site_fract_x
 _atom_site_fract_y
 _atom_site_fract_z
 _atom_site_occupancy
 _atom_site_pbe_bader_charge
 _atom_site_pbe_bader_spin_density
 _atom_site_pbe_cm5_charge
 _atom_site_pbe_ddec_charge
 _atom_site_pbe_ddec_spin_density
 _atom_site_pbe_ddec_sum_bond_order
 _atom_site_pbe_magmom
Zn  Zn0  1  0.43065305  0.42362248  0.50245829  1  1.313884  0  0.72686  0.957946  0  2.101386  0
Zn  Zn1  1  0.54553078  0.54735992  0.49239574  1  1.312992  0  0.731335  0.966493  0  2.140943  0
Zn  Zn2  1  0.45488570  0.00925349  0.93810855  1  1.314035  0  0.726733  0.953705  0  2.150386  0
Zn  Zn3  1  0.58034233  0.01250649  0.06506038  1  1.310913  0  0.727625  0.9577  0  2.118558  0
Zn  Zn4  1  0.00823004  0.57935978  0.07149960  1  1.309637  0  0.729399  0.962981  0  2.092622  0
Zn  Zn5  1  0.00820451  0.45865810  0.94218382  1  1.303528  0  0.721412  0.952434  0  2.129807  0
H  H6  1  0.16961402  0.51914405  0.57009283  1  0.103922  0  0.107287  0.102581  0  0.983798  0
H  H7  1  0.63037983  0.66483371  0.72046317  1  0.097265  0  0.099527  0.102708  0  1.042793  0
H  H8  1  0.77546663  0.79546604  0.83128078  1  0.128999  0  0.109037  0.121372  0  1.031411  0
H  H9  1  0.65105471  0.93775549  0.91335208  1  0.141417  0  0.115397  0.132789  0  1.028418  0
H  H10  1  0.32118821  0.78558969  0.77698746  1  0.102673  0  0.102311  0.109897  0  1.034  0
H  H11  1  0.17825795  0.65324763  0.67144373  1  0.035627  0  0.10364  0.098409  0  0.992222  0
H  H12  1  0.30427078  0.51712577  0.57807174  1  0.091867  0  0.105673  0.114996  0  1.024208  0
H  H13  1  0.36559650  0.51007780  0.24238127  1  0.094484  0  0.106468  0.111034  0  0.990364  0
H  H14  1  0.24571040  0.51126448  0.13646009  1  0.107038  0  0.105243  0.115783  0  1.025866  0
H  H15  1  0.11442859  0.56225967  0.35333446  1  0.053973  0  0.098098  0.107356  0  0.981952  0
H  H16  1  0.05233183  0.44661634  0.28560466  1  0.04333  0  0.098227  0.10594  0  0.982416  0
H  H17  1  0.22945347  0.54776808  0.45401269  1  0.077984  0  0.090623  0.098447  0  1.019324  0
H  H18  1  0.16771003  0.43209298  0.38605168  1  0.037136  0  0.096314  0.105255  0  0.980686  0
H  H19  1  0.46737240  0.36347898  0.24381508  1  0.07577  0  0.111583  0.117367  0  0.983311  0
H  H20  1  0.46672643  0.26398303  0.11734491  1  0.085026  0  0.112434  0.116937  0  0.982094  0
H  H21  1  0.51750012  0.07999657  0.27352814  1  0.094509  0  0.132841  0.115932  0  0.938862  0
H  H22  1  0.38385876  0.11014363  0.32407349  1  0.090722  0  0.114909  0.136272  0  0.957551  0
H  H23  1  0.50038422  0.17101676  0.39340202  1  0.074656  0  0.106544  0.122301  0  0.97133  0
H  H24  1  0.79689137  0.67829593  0.74912745  1  0.140634  0  0.125898  0.142902  0  0.984824  0
H  H25  1  0.74365488  0.35581000  0.75604841  1  0.088335  0  0.112215  0.080315  0  0.949513  0
H  H26  1  0.62286633  0.33539519  0.62315437  1  0.106553  0  0.109144  0.073374  0  0.951485  0
H  H27  1  0.43995767  0.80200635  0.11088707  1  0.154037  0  0.121147  0.136931  0  0.991716  0
H  H28  1  0.08359152  0.66503994  0.82722701  1  0.033292  0  0.095271  0.102701  0  0.983522  0
H  H29  1  0.08743146  0.74637816  0.91533377  1  0.096146  0  0.097144  0.116651  0  1.037985  0
H  H30  1  0.20661561  0.78392363  0.83602881  1  0.044777  0  0.097746  0.107717  0  0.991641  0
H  H31  1  0.20794493  0.86319149  0.92310241  1  0.089509  0  0.108754  0.130234  0  0.961017  0
H  H32  1  0.80135825  0.12836942  0.00178771  1  0.137185  0  0.101673  0.11647  0  1.044786  0
H  H33  1  0.89083727  0.22914489  0.96999221  1  0.089337  0  0.109167  0.116105  0  0.983477  0
H  H34  1  0.75778997  0.43676587  0.06407226  1  0.059633  0  0.097815  0.110523  0  0.979095  0
H  H35  1  0.68558035  0.37648155  0.94976528  1  0.076353  0  0.093632  0.113812  0  1.013697  0
H  H36  1  0.65456790  0.32595099  0.08008221  1  0.043625  0  0.093445  0.098242  0  0.989091  0
H  H37  1  0.58493366  0.26300017  0.96512094  1  0.059208  0  0.098038  0.110047  0  0.979536  0
C  C38  1  0.38000974  0.50132756  0.38598557  1  1.508995  0  0.224909  0.621727  0  4.126356  0
C  C39  1  0.46699399  0.57716865  0.61900205  1  1.553908  0  0.225553  0.611997  0  4.124367  0
C  C40  1  0.63769118  0.52823865  0.61783435  1  1.571983  0  0.218343  0.592361  0  4.171957  0
C  C41  1  0.46439002  0.34771270  0.37849192  1  1.55258  0  0.224437  0.616181  0  4.140878  0
C  C42  1  0.63384313  0.72413007  0.76171044  1  -0.00769  0  -0.086544  -0.102279  0  3.96326  0
C  C43  1  0.71436831  0.79573968  0.82227369  1  -0.045842  0  -0.087139  -0.134357  0  3.996803  0
C  C44  1  0.71752075  0.87247905  0.87535667  1  0.129234  0  0.07562  0.076085  0  3.957925  0
C  C45  1  0.64357867  0.87721954  0.86945800  1  0.06998  0  -0.070236  -0.148587  0  3.901058  0
C  C46  1  0.55892093  0.80311385  0.80776675  1  -0.002475  0  0.005949  0.072144  0  3.947916  0
C  C47  1  0.55380742  0.72486201  0.75078460  1  0.039031  0  0.005036  0.063923  0  3.953255  0
C  C48  1  0.48061703  0.80470923  0.79995092  1  -0.007122  0  0.003999  -0.097383  0  3.845851  0
C  C49  1  0.39772549  0.72957943  0.73947085  1  -0.025646  0  0.00546  0.065395  0  3.946715  0
C  C50  1  0.39272869  0.65097049  0.68231990  1  0.024535  0  0.006184  0.069259  0  3.954093  0
C  C51  1  0.47066505  0.65107069  0.68739581  1  -0.025445  0  0.000621  -0.103439  0  3.86033  0
C  C52  1  0.31788640  0.72726621  0.73372824  1  0.035997  0  -0.089675  -0.126972  0  3.967147  0
C  C53  1  0.23825061  0.65342259  0.67460282  1  -0.066084  0  -0.089269  -0.081354  0  4.039305  0
C  C54  1  0.23332343  0.57729027  0.61729736  1  -0.081293  0  -0.084261  -0.070821  0  4.03035  0
C  C55  1  0.30824779  0.57609137  0.62106305  1  -0.039676  0  -0.089185  -0.135766  0  3.976577  0
C  C56  1  0.23438314  0.49930925  0.33153727  1  -0.034693  0  -0.006309  0.057847  0  3.883258  0
C  C57  1  0.30730878  0.50228120  0.32335033  1  -0.006823  0  -0.01397  -0.074592  0  3.99271  0
C  C58  1  0.30983466  0.50745742  0.25153697  1  -0.081822  0  -0.083441  -0.099658  0  3.990034  0
C  C59  1  0.24260160  0.50887437  0.19202415  1  0.042883  0  -0.082194  -0.094346  0  3.972354  0
C  C60  1  0.17241808  0.51269071  0.20430639  1  -0.037829  0  -0.007962  -0.060351  0  3.94924  0
C  C61  1  0.17029486  0.50754034  0.27544183  1  0.020966  0  -0.00439  0.054103  0  3.885537  0
C  C62  1  0.11854409  0.50329899  0.32316317  1  -0.01194  0  -0.149947  -0.196773  0  3.880109  0
C  C63  1  0.19118837  0.49417469  0.38662272  1  -0.024221  0  -0.153985  -0.198302  0  3.881448  0
C  C64  1  0.45129557  0.20220090  0.28871394  1  0.038729  0  0.003431  0.075998  0  3.885984  0
C  C65  1  0.45758168  0.28200718  0.30122039  1  -0.034817  0  -0.008939  -0.065216  0  3.94981  0
C  C66  1  0.46287956  0.30188671  0.23690090  1  -0.037187  0  -0.071854  -0.081082  0  3.949271  0
C  C67  1  0.46343598  0.24611420  0.16582145  1  0.023346  0  -0.076684  -0.101447  0  3.96122  0
C  C68  1  0.46422170  0.16907663  0.15763301  1  0.002971  0  0.001329  -0.031672  0  3.951401  0
C  C69  1  0.45760233  0.14956466  0.22077757  1  -0.032549  0  -0.010922  -0.006056  0  3.923941  0
C  C70  1  0.45822661  0.08624202  0.25266530  1  0.239742  0  0.02025  -0.028115  0  3.751629  0
C  C71  1  0.44700289  0.14339824  0.32780803  1  -0.033669  0  -0.134852  -0.231048  0  3.82625  0
C  C72  1  0.69532164  0.47771918  0.71994314  1  -0.0671  0  0.006097  0.019253  0  3.873703  0
C  C73  1  0.70670945  0.54331874  0.69843484  1  0.086507  0  -0.000578  -0.033654  0  3.94487  0
C  C74  1  0.78355574  0.62286567  0.75944810  1  -0.002131  0  -0.056711  -0.122395  0  3.900718  0
C  C75  1  0.84541582  0.63357452  0.83518705  1  0.201841  0  0.089782  0.046308  0  3.875551  0
C  C76  1  0.83800833  0.56599176  0.85404543  1  0.04634  0  0.024276  -0.031473  0  3.852969  0
C  C77  1  0.75907700  0.48853483  0.79331102  1  0.013864  0  -0.003694  -0.013939  0  3.900277  0
C  C78  1  0.71090815  0.39431677  0.76921120  1  0.539873  0  0.034712  0.114654  0  3.844691  0
C  C79  1  0.63662702  0.38245581  0.68653946  1  0.544793  0  0.033656  0.112425  0  3.860853  0
C  C80  1  0.42455920  0.89167977  0.02171503  1  1.528733  0  0.218196  0.605935  0  4.148048  0
C  C81  1  0.48772012  0.88512644  0.86285417  1  1.546899  0  0.225047  0.612767  0  4.12445  0
C  C82  1  0.65589047  0.12323089  0.02028278  1  1.515266  0  0.227887  0.61918  0  4.122277  0
C  C83  1  0.47840593  0.11494461  0.09039593  1  1.581158  0  0.225958  0.616795  0  4.139631  0
C  C84  1  0.13909682  0.61479819  0.00093463  1  1.61714  0  0.225546  0.625391  0  4.169733  0
C  C85  1  0.10802809  0.52210432  0.14139745  1  1.538734  0  0.226681  0.622304  0  4.118796  0
C  C86  1  0.88650515  0.37528820  0.97040446  1  1.520577  0  0.220312  0.612216  0  4.13776  0
C  C87  1  0.90561935  0.56403312  0.92381898  1  1.634293  0  0.225036  0.6106  0  4.181189  0
C  C88  1  0.26614945  0.78767490  0.96070158  1  -0.022961  0  0.014596  0.095504  0  3.861682  0
C  C89  1  0.35466769  0.81970291  0.01595349  1  0.086367  0  -0.013711  -0.079168  0  3.991694  0
C  C90  1  0.37263395  0.78102425  0.06623269  1  0.031491  0  -0.063725  -0.116645  0  3.935349  0
C  C91  1  0.30446885  0.71521577  0.06066523  1  0.206979  0  0.081923  0.034843  0  3.916094  0
C  C92  1  0.21440964  0.68327064  0.00627581  1  0.025508  0  0.016082  -0.064185  0  3.887252  0
C  C93  1  0.19871968  0.72191525  0.95615823  1  -0.00272  0  -0.000138  0.057686  0  3.858236  0
C  C94  1  0.12699124  0.72481051  0.89072486  1  -0.024781  0  -0.153308  -0.196951  0  3.850269  0
C  C95  1  0.20351292  0.79898326  0.89611721  1  -0.022764  0  -0.147368  -0.201322  0  3.863622  0
C  C96  1  0.70807193  0.25682506  0.00949025  1  -0.016312  0  -0.007797  0.051545  0  3.896638  0
C  C97  1  0.71964541  0.18769892  0.01193420  1  -0.012698  0  -0.011634  -0.065012  0  3.971111  0
C  C98  1  0.78870928  0.18066704  0.99956163  1  -0.041153  0  -0.085465  -0.108428  0  3.958244  0
C  C99  1  0.83977057  0.23815991  0.98194514  1  -0.037076  0  -0.081975  -0.098305  0  3.964555  0
C  C100  1  0.82851625  0.30892754  0.98137242  1  -0.039779  0  -0.013086  -0.07552  0  3.976581  0
C  C101  1  0.76275437  0.31742187  0.99793437  1  0.035657  0  -0.003832  0.065477  0  3.885857  0
C  C102  1  0.71688808  0.37130842  0.00677796  1  -0.032468  0  -0.153258  -0.204608  0  3.869849  0
C  C103  1  0.65341920  0.30129222  0.01770645  1  -0.043486  0  -0.152352  -0.193789  0  3.881247  0
N  N104  1  0.38248026  0.99383192  0.19399338  1  0.444465  0  0.055371  0.526264  0  4.176515  0
N  N105  1  0.92287957  0.72131033  0.89585750  1  0.40006  0  0.060284  0.503952  0  4.211917  0
N  N106  1  0.32922938  0.67857287  0.11572961  1  0.35738  0  0.058951  0.519203  0  4.210714  0
N  N107  1  0.80375547  0.95042102  0.93935986  1  0.370493  0  0.054769  0.511519  0  4.207245  0
O  O108  1  0.36048224  0.45258238  0.41753015  1  -1.163374  0  -0.31454  -0.570385  0  2.298116  0
O  O109  1  0.45828104  0.55053019  0.40394535  1  -1.12981  0  -0.316495  -0.530953  0  2.241078  0
O  O110  1  0.42314368  0.49813568  0.60012160  1  -1.127675  0  -0.306451  -0.517739  0  2.22276  0
O  O111  1  0.50899116  0.59952782  0.58217344  1  -1.17329  0  -0.306369  -0.57002  0  2.363387  0
O  O112  1  0.56257671  0.46410193  0.58459734  1  -1.169033  0  -0.302642  -0.560426  0  2.344567  0
O  O113  1  0.65724322  0.58013988  0.58854992  1  -1.128297  0  -0.312016  -0.519264  0  2.208861  0
O  O114  1  0.41988964  0.32165634  0.41309697  1  -1.125985  0  -0.313439  -0.523008  0  2.203718  0
O  O115  1  0.51509003  0.42659138  0.40463404  1  -1.172925  0  -0.313761  -0.575997  0  2.343053  0
O  O116  1  0.39889079  0.91821698  0.96970996  1  -1.167902  0  -0.307467  -0.566903  0  2.35196  0
O  O117  1  0.50503699  0.92258765  0.07798507  1  -1.13169  0  -0.317387  -0.525001  0  2.224565  0
O  O118  1  0.43961836  0.91659297  0.83508828  1  -1.131643  0  -0.310328  -0.523736  0  2.229977  0
O  O119  1  0.54159192  0.91681342  0.94190721  1  -1.169923  0  -0.304035  -0.56453  0  2.368744  0
O  O120  1  0.57580102  0.10040236  0.97424318  1  -1.173178  0  -0.312569  -0.571924  0  2.340544  0
O  O121  1  0.68254963  0.09532370  0.07166704  1  -1.111627  0  -0.309962  -0.517677  0  2.212001  0
O  O122  1  0.43266888  0.09344951  0.01130614  1  -1.130966  0  -0.31126  -0.520612  0  2.214208  0
O  O123  1  0.53658481  0.09450261  0.11862726  1  -1.16458  0  -0.312913  -0.573779  0  2.306418  0
O  O124  1  0.10891131  0.64058345  0.04952866  1  -1.154684  0  -0.301452  -0.549512  0  2.289033  0
O  O125  1  0.10666162  0.53628368  0.94092122  1  -1.126773  0  -0.31725  -0.528108  0  2.238626  0
O  O126  1  0.07939895  0.57378104  0.16980931  1  -1.121244  0  -0.315534  -0.52866  0  2.196747  0
O  O127  1  0.08658747  0.47953179  0.06248160  1  -1.177607  0  -0.308522  -0.567392  0  2.345312  0
O  O128  1  0.90456157  0.45324637  0.01483911  1  -1.173005  0  -0.310116  -0.572556  0  2.32093  0
O  O129  1  0.91599413  0.35194075  0.91824934  1  -1.124436  0  -0.321251  -0.534611  0  2.212415  0
O  O130  1  0.92603579  0.60608704  0.00279688  1  -1.119952  0  -0.302843  -0.502624  0  2.244236  0
O  O131  1  0.93100341  0.51208146  0.89243786  1  -1.154155  0  -0.301115  -0.558495  0  2.286415  0
O  O132  1  0.32685004  0.97486401  0.12257709  1  -0.440533  0  -0.121486  -0.321461  0  1.905363  0
O  O133  1  0.38188162  0.94392465  0.22306952  1  -0.453292  0  -0.136396  -0.337876  0  1.87187  0
O  O134  1  0.98709219  0.72758175  0.95156944  1  -0.445053  0  -0.106004  -0.301775  0  1.977073  0
O  O135  1  0.91878191  0.78266815  0.88713019  1  -0.433376  0  -0.122479  -0.318461  0  1.900554  0
O  O136  1  0.26830559  0.62531736  0.11582913  1  -0.459381  0  -0.113048  -0.317656  0  2.007633  0
O  O137  1  0.40777248  0.70158250  0.15844687  1  -0.453983  0  -0.141084  -0.337393  0  1.864143  0
O  O138  1  0.86765410  0.95098066  0.93107467  1  -0.440886  0  -0.13749  -0.329818  0  1.868524  0
O  O139  1  0.80747538  0.01081109  0.99764554  1  -0.459825  0  -0.140911  -0.348892  0  1.933722  0
F  F140  1  0.68280941  0.38009377  0.82552205  1  -0.623853  0  -0.128792  -0.170718  0  1.307837  0
F  F141  1  0.55754089  0.36252007  0.68670049  1  -0.613123  0  -0.139091  -0.17053  0  1.274778  0
