# generated using pymatgen
data_CoH8C12(NO2)2
_symmetry_space_group_name_H-M   'P 1'
_cell_length_a   9.87908578
_cell_length_b   10.33612931
_cell_length_c   13.98272586
_cell_angle_alpha   84.89385742
_cell_angle_beta   69.31953801
_cell_angle_gamma   75.39672347
_symmetry_Int_Tables_number   1
_chemical_formula_structural   CoH8C12(NO2)2
_chemical_formula_sum   'Co4 H32 C48 N8 O16'
_cell_volume   1292.64318037
_cell_formula_units_Z   4
loop_
 _symmetry_equiv_pos_site_id
 _symmetry_equiv_pos_as_xyz
  1  'x, y, z'
loop_
 _atom_site_type_symbol
 _atom_site_label
 _atom_site_symmetry_multiplicity
 _atom_site_fract_x
 _atom_site_fract_y
 _atom_site_fract_z
 _atom_site_occupancy
 _atom_site_pbe_bader_charge
 _atom_site_pbe_bader_spin_density
 _atom_site_pbe_cm5_charge
 _atom_site_pbe_ddec_charge
 _atom_site_pbe_ddec_spin_density
 _atom_site_pbe_ddec_sum_bond_order
 _atom_site_pbe_magmom
Co  Co0  1  0.37673296  0.12056877  0.24879526  1  1.342498  2.601809  0.696903  0.952588  2.819677  2.530961  2.588
Co  Co1  1  0.62571529  0.62072244  0.75120394  1  1.34505  2.602552  0.697201  0.95301  2.820985  2.530252  2.589
Co  Co2  1  0.12557904  0.61476804  0.74817355  1  1.350237  2.624413  0.692527  0.960422  2.843378  2.510316  2.611
Co  Co3  1  0.87356775  0.11474117  0.25176472  1  1.348949  2.625069  0.69339  0.962277  2.843512  2.508561  2.612
H  H4  1  0.15531734  0.22699903  0.14006549  1  0.145175  0.001411  0.114758  0.089199  -1.8e-05  1.067254  0.001
H  H5  1  0.29509609  0.72708105  0.85976313  1  0.15815  0.001414  0.11482  0.089427  -1.3e-05  1.067864  0.001
H  H6  1  0.14815968  0.35524973  0.98047659  1  0.083546  0.001021  0.100504  0.106368  0.000436  1.056335  0.0
H  H7  1  0.12810154  0.85503255  0.01941093  1  0.068551  0.001031  0.101047  0.106448  0.000441  1.055096  0.0
H  H8  1  0.59272868  0.39239547  0.92834998  1  0.147659  0.000739  0.102868  0.118964  0.000253  1.076675  0.001
H  H9  1  0.52016955  0.89160561  0.07231557  1  0.146026  0.00074  0.103571  0.120181  0.000255  1.075841  0.001
H  H10  1  0.58397072  0.25832347  0.08943983  1  0.107672  0.00166  0.110723  0.07983  0.000331  1.036303  0.001
H  H11  1  0.67281130  0.75787238  0.91114261  1  0.121114  0.001661  0.110217  0.07913  0.000333  1.035904  0.001
H  H12  1  0.08210135  0.52062006  0.56503793  1  0.113419  0.001751  0.114039  0.086429  0.000363  1.01601  0.001
H  H13  1  0.64710392  0.02055843  0.43494701  1  0.096856  0.001744  0.112997  0.084964  0.000362  1.016605  0.001
H  H14  1  0.23715400  0.38960117  0.40330786  1  0.130018  0.000822  0.107226  0.123694  0.00027  1.040757  0.001
H  H15  1  0.64067576  0.88951899  0.59659557  1  0.132813  0.000827  0.107084  0.123569  0.00027  1.043091  0.001
H  H16  1  0.61911313  0.34889494  0.49421739  1  0.11043  0.001085  0.104627  0.115902  0.000448  1.031571  0.0
H  H17  1  0.11340922  0.84910361  0.50565566  1  0.113991  0.001076  0.1043  0.115133  0.000448  1.033048  0.0
H  H18  1  0.45067614  0.48359423  0.65076219  1  0.148174  0.001539  0.11587  0.093516  0.000177  1.064345  0.001
H  H19  1  0.10131030  0.98401282  0.34923797  1  0.164645  0.001533  0.115404  0.093104  0.000175  1.064892  0.001
H  H20  1  0.49349844  0.83046938  0.29575698  1  0.11069  0.001596  0.120256  0.092965  0.000337  0.982302  0.001
H  H21  1  0.78921878  0.33081031  0.70415168  1  0.108996  0.001599  0.11987  0.093401  0.000339  0.982425  0.001
H  H22  1  0.50228179  0.68495193  0.44785083  1  0.106717  0.000767  0.107332  0.114861  0.000292  1.008186  0.0
H  H23  1  0.94982913  0.18518997  0.55208278  1  0.089039  0.000781  0.107172  0.114989  0.000293  1.008067  0.0
H  H24  1  0.25204210  0.03316912  0.63755709  1  0.080851  0.001056  0.112628  0.123022  0.000471  0.976439  0.0
H  H25  1  0.88969245  0.53338116  0.36231516  1  0.080251  0.001055  0.112255  0.123067  0.000474  0.977035  0.0
H  H26  1  0.26105396  0.16433150  0.47731357  1  0.119229  0.001239  0.114155  0.082242  0.000229  1.046286  0.001
H  H27  1  0.73879165  0.66471379  0.52254423  1  0.114749  0.001238  0.114502  0.082662  0.000227  1.046389  0.001
H  H28  1  0.04264420  0.57691077  0.98111240  1  0.123501  0.001431  0.114816  0.083351  0.000367  1.039632  0.001
H  H29  1  0.02415299  0.07670998  0.01880475  1  0.124911  0.001425  0.114694  0.083161  0.000362  1.039179  0.001
H  H30  1  0.89298916  0.70983812  0.14159929  1  0.06968  0.001123  0.11347  0.125257  0.000494  0.97588  0.0
H  H31  1  0.03507158  0.20973799  0.85833550  1  0.078138  0.001113  0.113533  0.125034  0.000493  0.976443  0.0
H  H32  1  0.76693390  0.03644486  0.95149337  1  0.075749  0.000764  0.110644  0.118508  0.000275  0.997506  0.0
H  H33  1  0.71895291  0.53631422  0.04844786  1  0.107924  0.000745  0.109896  0.117908  0.000275  0.99865  0.0
H  H34  1  0.93531331  0.89457378  0.79904057  1  0.101445  0.001399  0.120504  0.096137  0.000243  0.992636  0.001
H  H35  1  0.73446692  0.39424288  0.20086058  1  0.14513  0.0014  0.120442  0.095923  0.000238  0.993642  0.001
C  C36  1  0.25097546  0.26304413  0.09007034  1  0.431745  -0.008162  0.036789  0.085347  -0.009196  3.933355  -0.005
C  C37  1  0.34065494  0.76294592  0.90990698  1  0.414494  -0.008136  0.036839  0.08416  -0.009105  3.932011  -0.005
C  C38  1  0.24665986  0.33603562  0.00243616  1  -0.019536  0.003861  -0.087757  -0.14743  0.001552  3.956916  0.003
C  C39  1  0.24854431  0.83574395  0.99759383  1  0.051626  0.003737  -0.088263  -0.145925  0.001481  3.954077  0.003
C  C40  1  0.37076353  0.38319078  0.94183361  1  -0.003115  -0.003849  -0.004416  0.00781  -0.006323  3.957149  -0.001
C  C41  1  0.31192119  0.88264217  0.05842166  1  0.044006  -0.00372  -0.005027  0.005605  -0.006182  3.95578  -0.001
C  C42  1  0.49527783  0.35479839  0.97278366  1  -0.000347  0.004647  -0.088439  -0.151268  0.002095  3.936291  0.004
C  C43  1  0.46731466  0.85412238  0.02771068  1  -0.131918  0.004769  -0.089091  -0.152771  0.002153  3.936742  0.004
C  C44  1  0.49053046  0.28144226  0.06167319  1  0.398664  -0.00823  0.040146  0.095104  -0.009213  3.94198  -0.005
C  C45  1  0.55162271  0.78100398  0.93875304  1  0.462828  -0.008163  0.040611  0.096413  -0.009128  3.941776  -0.005
C  C46  1  0.36962509  0.46285146  0.84680658  1  1.57652  0.000618  0.22067  0.588048  -0.001136  4.163761  0.005
C  C47  1  0.21577209  0.96253514  0.15337078  1  1.568442  0.000705  0.222023  0.591343  -0.00115  4.161214  0.005
C  C48  1  0.20181889  0.48204591  0.54570669  1  0.478663  -0.006466  0.043889  0.099374  -0.007268  3.934752  -0.004
C  C49  1  0.74752164  0.98218711  0.45428678  1  0.494404  -0.006442  0.042971  0.098046  -0.007292  3.934823  -0.004
C  C50  1  0.28770132  0.41018737  0.45628920  1  -0.087892  0.004104  -0.087632  -0.156233  0.001886  3.954007  0.004
C  C51  1  0.74409292  0.91032425  0.54368810  1  -0.056118  0.004062  -0.086286  -0.153586  0.001874  3.955596  0.004
C  C52  1  0.44035006  0.35922505  0.43674625  1  -0.037228  -0.002084  -0.006691  -0.001869  -0.004782  3.962917  0.001
C  C53  1  0.87720356  0.85940608  0.56322722  1  -0.01403  -0.002157  -0.00651  -0.003757  -0.004837  3.965861  0.0
C  C54  1  0.50075855  0.38667392  0.50716305  1  -0.030472  0.003611  -0.086018  -0.145487  0.001437  3.952567  0.003
C  C55  1  0.00793934  0.88690366  0.49277518  1  -0.040424  0.003652  -0.08623  -0.144274  0.001433  3.952791  0.003
C  C56  1  0.40765064  0.46092837  0.59398845  1  0.442394  -0.007074  0.03633  0.079972  -0.008059  3.93208  -0.004
C  C57  1  0.00156258  0.96124206  0.40599181  1  0.396839  -0.007109  0.036289  0.078647  -0.008066  3.932167  -0.004
C  C58  1  0.53698849  0.27427744  0.34412662  1  1.591931  0.000852  0.217029  0.58139  -0.001003  4.180887  0.005
C  C59  1  0.88128913  0.77438545  0.65578649  1  1.582847  0.000713  0.217703  0.583551  -0.001074  4.182245  0.005
C  C60  1  0.44351170  0.87126757  0.37306082  1  0.453516  -0.008274  0.051111  0.1058  -0.009524  3.938292  -0.006
C  C61  1  0.81652033  0.37157731  0.62685625  1  0.437491  -0.008279  0.050669  0.103824  -0.009558  3.941587  -0.006
C  C62  1  0.44695038  0.79091869  0.45794637  1  0.029533  0.007279  -0.082243  -0.158679  0.003523  3.940623  0.005
C  C63  1  0.90469744  0.29118941  0.54198263  1  -0.059895  0.007324  -0.082255  -0.158756  0.003546  3.943202  0.005
C  C64  1  0.37785424  0.84785190  0.55576079  1  -0.10967  -0.003835  0.010651  0.032582  -0.006593  3.935627  -0.002
C  C65  1  0.93353343  0.34808363  0.44414722  1  0.033981  -0.003858  0.010847  0.031573  -0.006661  3.937459  -0.002
C  C66  1  0.30838886  0.98427091  0.56317631  1  -0.017082  0.00796  -0.082074  -0.157863  0.003792  3.950508  0.006
C  C67  1  0.87168146  0.48453634  0.43670386  1  -0.089979  0.007957  -0.081957  -0.157876  0.003776  3.953571  0.006
C  C68  1  0.31317794  0.05788758  0.47436068  1  0.497235  -0.00883  0.04222  0.088637  -0.009793  3.956659  -0.006
C  C69  1  0.78782688  0.55822357  0.52552369  1  0.520498  -0.008886  0.042303  0.088119  -0.009834  3.957486  -0.006
C  C70  1  0.38148404  0.76843270  0.65093225  1  1.607173  0.00573  0.226872  0.596261  0.003479  4.177687  0.007
C  C71  1  0.03219544  0.26857832  0.34900653  1  1.626444  0.005735  0.228582  0.600036  0.003407  4.174278  0.007
C  C72  1  0.98045818  0.67952420  0.97828246  1  0.415294  -0.008024  0.044188  0.087959  -0.008979  3.957434  -0.005
C  C73  1  0.95907781  0.17931690  0.02163615  1  0.483587  -0.008145  0.044661  0.088348  -0.009049  3.956836  -0.005
C  C74  1  0.89648324  0.75362822  0.06711883  1  0.057864  0.007319  -0.08006  -0.155038  0.003521  3.953419  0.005
C  C75  1  0.96400797  0.25348659  0.93281503  1  -0.036888  0.007291  -0.080682  -0.155237  0.003483  3.953973  0.005
C  C76  1  0.81639473  0.88438049  0.05965951  1  -0.051764  -0.002668  0.006253  0.020186  -0.005486  3.938927  -0.001
C  C77  1  0.87654828  0.38427241  0.94029579  1  -0.038191  -0.002752  0.006464  0.020565  -0.005555  3.939701  -0.001
C  C78  1  0.82852923  0.93575910  0.96154138  1  -0.03387  0.005889  -0.080291  -0.156607  0.002836  3.959087  0.004
C  C79  1  0.79051413  0.43561217  0.03841170  1  -0.06302  0.005927  -0.079537  -0.156375  0.00285  3.961467  0.004
C  C80  1  0.92001722  0.85701407  0.87657518  1  0.4811  -0.006886  0.048413  0.099057  -0.007968  3.935193  -0.005
C  C81  1  0.79680544  0.35675849  0.12333211  1  0.430628  -0.006934  0.047971  0.099077  -0.008011  3.936312  -0.005
C  C82  1  0.71641018  0.96554537  0.15407837  1  1.62616  0.005925  0.222549  0.587562  0.003603  4.192478  0.007
C  C83  1  0.87116704  0.46555576  0.84588073  1  1.626653  0.005955  0.223179  0.588479  0.003698  4.190513  0.007
N  N84  1  0.37094492  0.23559551  0.11983756  1  -1.214477  0.049791  -0.327299  -0.243304  0.025967  3.581419  0.047
N  N85  1  0.49038777  0.73548357  0.88030197  1  -1.250441  0.049788  -0.327081  -0.242832  0.025942  3.577638  0.047
N  N86  1  0.25990865  0.50721514  0.61404923  1  -1.208989  0.05226  -0.325211  -0.2467  0.027352  3.574464  0.049
N  N87  1  0.87384724  0.00747600  0.38592865  1  -1.221003  0.052063  -0.324228  -0.244688  0.027254  3.574232  0.048
N  N88  1  0.37937670  0.00326067  0.38012572  1  -1.227056  0.047695  -0.325665  -0.258336  0.024768  3.572062  0.045
N  N89  1  0.75973153  0.50363110  0.61978203  1  -1.213643  0.04769  -0.325131  -0.256531  0.024795  3.571466  0.045
N  N90  1  0.99346492  0.72940727  0.88386075  1  -1.217902  0.047646  -0.321864  -0.255542  0.024836  3.54918  0.045
N  N91  1  0.87744698  0.22913427  0.11604756  1  -1.211319  0.047566  -0.322099  -0.255812  0.024808  3.548831  0.045
O  O92  1  0.24621004  0.49564524  0.83118312  1  -1.162438  0.078989  -0.30506  -0.563348  0.041435  2.415373  0.068
O  O93  1  0.07675632  0.99534972  0.16893588  1  -1.161402  0.079393  -0.305513  -0.565189  0.041619  2.415356  0.068
O  O94  1  0.49175779  0.48884428  0.78828681  1  -1.172704  0.069903  -0.311411  -0.568115  0.035709  2.42921  0.057
O  O95  1  0.27942288  0.98879644  0.21176617  1  -1.173627  0.069218  -0.31203  -0.56921  0.03536  2.430118  0.057
O  O96  1  0.47596729  0.25040606  0.28351526  1  -1.158785  0.074381  -0.311482  -0.56359  0.037621  2.419686  0.061
O  O97  1  0.75963954  0.75067187  0.71647606  1  -1.160845  0.07432  -0.312303  -0.565697  0.037622  2.420534  0.061
O  O98  1  0.67413620  0.23573133  0.33373810  1  -1.159236  0.082332  -0.305286  -0.564241  0.043157  2.44435  0.071
O  O99  1  0.00809296  0.73560169  0.66609928  1  -1.158044  0.0822  -0.304803  -0.563674  0.04312  2.44329  0.071
O  O100  1  0.25940974  0.75047461  0.71429053  1  -1.171709  0.060376  -0.306782  -0.562975  0.03076  2.402945  0.048
O  O101  1  0.97351830  0.25060685  0.28562805  1  -1.16303  0.060371  -0.307244  -0.564167  0.03083  2.401244  0.048
O  O102  1  0.50906965  0.73160445  0.65961637  1  -1.151609  0.071177  -0.29183  -0.550568  0.037424  2.406745  0.061
O  O103  1  0.16845644  0.23161740  0.34036738  1  -1.158202  0.070977  -0.29318  -0.553167  0.037325  2.404502  0.061
O  O104  1  0.77101094  0.97998211  0.22065694  1  -1.159457  0.062281  -0.310661  -0.56273  0.031315  2.37504  0.05
O  O105  1  0.99246614  0.47984952  0.77940140  1  -1.162867  0.062623  -0.310987  -0.562655  0.031439  2.374423  0.05
O  O106  1  0.58243444  0.00835564  0.15770061  1  -1.15846  0.073933  -0.292956  -0.548482  0.038771  2.42451  0.064
O  O107  1  0.74086025  0.50864797  0.84225040  1  -1.155847  0.073737  -0.292902  -0.548934  0.03868  2.42305  0.064
